data/pnnl300_5p.m
function mpc = pnnl300_5p
%PNNL300_5P

%% MATPOWER Case Format : Version 2
mpc.version = '2';

%%-----  Power Flow Data  -----%%
%% system MVA base
mpc.baseMVA = 100;

%% bus data
%	bus_i	type	Pd	Qd	Gs	Bs	area	Vm	Va	baseKV	zone	Vmax	Vmin
mpc.bus = [
	1	1	84.9082771	46.2285452	0	0	1	1.02592581	-179.225902	115	1	1.1	0.9;
	2	1	52.9029091	14.170279	0	0	1	1.03285965	-177.185762	115	1	1.1	0.9;
	3	1	18.721723	0	0	0	1	0.990555223	-179.072371	230	1	1.1	0.9;
	4	1	0	0	0	0	1	1.02747128	179.724024	345	1	1.1	0.9;
	5	1	332.668881	122.511051	0	0	1	1.01643134	179.540853	115	1	1.1	0.9;
	6	1	113.084746	38.6373041	0	0	1	1.0275724	-178.072465	115	1	1.1	0.9;
	7	1	0	0	0	0	1	0.985963478	-179.630502	230	1	1.1	0.9;
	8	1	55.0308001	13.2828648	0	0	1	1.01516212	178.277369	115	1	1.1	0.9;
	9	1	90.7099615	40.6301381	0	0	1	1.00207896	178.082851	115	1	1.1	0.9;
	10	1	139.600916	31.1274883	0	0	1	1.01620453	176.517863	230	1	1.1	0.9;
	11	1	78.6148346	19.8907654	0	0	1	1.00459036	177.976857	115	1	1.1	0.9;
	12	1	0	0	0	0	1	0.993021729	179.947558	230	1	1.1	0.9;
	13	1	54.8550981	9.45732228	0	0	1	0.995770523	175.116845	115	1	1.1	0.9;
	14	1	152.545558	57.2051779	0	0	1	1.0049694	172.517534	115	1	1.1	0.9;
	15	1	120.738769	21.9176011	0	0	1	1.04004823	170.014604	115	1	1.1	0.9;
	16	1	0	0	0	0	1	1.03995706	175.130159	345	1	1.1	0.9;
	17	1	535.01187	209.807377	0	0	1	1.0702711	166.368778	115	1	1.1	0.9;
	18	1	0	0	0	0	1	0.981181627	176.754402	230	1	1.1	0.9;
	19	1	561.946802	113.333034	0	0	1	0.997555465	173.299976	115	1	1.1	0.9;
	20	1	72.7132296	0.944846645	0	0	1	0.973050461	177.080671	230	1	1.1	0.9;
	21	1	76.5596178	21.738583	0	0	1	0.994324249	173.907282	115	1	1.1	0.9;
	22	1	19.9301152	6.643388	0	0	1	1.04984185	179.975066	115	1	1.1	0.9;
	23	1	0	0	0	0	1	1.00470049	-178.143515	230	1	1.1	0.9;
	24	1	42.6702792	11.3788817	0	0	1	1.02409962	177.549741	115	1	1.1	0.9;
	25	1	26.5133424	8.52194413	0	0	1	0.99976715	174.439489	115	1	1.1	0.9;
	26	1	65.2622529	12.2960946	0	0	1	0.976108277	171.266967	115	1	1.1	0.9;
	27	1	52.258608	5.70113914	0	0	1	1.03450128	169.12153	115	1	1.1	0.9;
	28	1	0	0	0	0	1	1.05371735	172.632652	345	1	1.1	0.9;
	29	1	0	0	0	0	1	0.994764395	160.455499	115	1	1.1	0.9;
	30	1	0	0	0	0	1	1.02190702	163.039761	230	1	1.1	0.9;
	31	1	80.5120817	30.310607	0	0	1	1.02832408	169.930518	115	1	1.1	0.9;
	32	1	147.212322	17.0958853	0	0	1	1.03040626	168.673343	115	1	1.1	0.9;
	33	1	0	0	0	0	1	1.0638701	174.664929	345	1	1.1	0.9;
	34	1	43.6782494	-19.9400804	0	0	1	1.03091837	168.459733	115	1	1.1	0.9;
	35	1	81.5880975	0	0	0	1	1.03850709	170.579021	115	1	1.1	0.9;
	36	1	0	0	0	0	1	1.05726094	173.051641	345	1	1.1	0.9;
	37	1	37.2677003	8.60038359	0	0	1	1.0158088	165.239111	115	1	1.1	0.9;
	38	1	187.15365	27.8334829	0	0	1	1.0269566	165.028975	115	1	1.1	0.9;
	39	1	0	0	0	0	1	1.04177966	167.528202	230	1	1.1	0.9;
	40	1	0	0	0	0	1	1.05247236	170.137141	345	1	1.1	0.9;
	41	1	55.6501861	11.3219535	0	0	1	1.00064591	160.522329	115	1	1.1	0.9;
	42	1	39.0038474	18.074952	0	0	1	1.00999254	165.524858	115	1	1.1	0.9;
	43	1	85.2273037	24.0863909	0	0	1	1.04977277	178.532705	115	1	1.1	0.9;
	44	1	-4.69920938	4.69920938	0	0	1	1.03258012	173.197132	115	1	1.1	0.9;
	45	1	57.7331587	26.5003264	0	0	1	1.00835768	169.802942	115	1	1.1	0.9;
	46	1	65.9396946	2.8665291	0	0	1	1.01155699	164.538974	115	1	1.1	0.9;
	47	1	9.5585028	0.956432336	0	0	1	1.02029943	165.903116	115	1	1.1	0.9;
	48	1	20.9227837	9.51097924	0	0	1	1.02506465	169.523148	115	1	1.1	0.9;
	49	1	93.2594765	19.0322698	0	0	1	1.03772074	172.911375	115	1	1.1	0.9;
	50	1	13.293391	0.948859372	0	0	1	0.994850412	174.101686	115	1	1.1	0.9;
	51	1	206.966359	100.634143	0	0	1	0.982104995	174.539321	115	1	1.1	0.9;
	52	1	0	0	0	0	1	1.04202138	171.09405	230	1	1.1	0.9;
	53	1	215.547997	104.449253	0	0	1	0.993270767	176.145915	115	1	1.1	0.9;
	54	1	0	0	0	0	1	1.02089069	177.055099	230	1	1.1	0.9;
	55	1	66.6721622	28.5740287	0	0	1	0.959944768	162.085163	115	1	1.1	0.9;
	56	1	0	0	0	0	1	0.952594402	166.332221	230	1	1.1	0.9;
	57	1	0	0	0	0	1	1.0132337	160.712431	115	1	1.1	0.9;
	58	1	53.7780754	19.2063199	0	0	1	1.0298282	151.46658	115	1	1.1	0.9;
	59	1	111.376712	36.4854144	0	150	1	1.05274763	155.842769	115	1	1.1	0.9;
	60	1	54.5751926	18.1914144	0	0	1	1.00051439	158.768777	115	1	1.1	0.9;
	61	1	214.732573	68.0627266	0	0	1	1.00595678	159.713476	115	1	1.1	0.9;
	62	1	0	0	0	0	1	1.02254938	162.794271	230	1	1.1	0.9;
	63	1	199.144011	102.44336	0	0	1	0.980490858	159.738179	115	1	1.1	0.9;
	64	1	70.7424025	26.7671129	0	0	1	1.00151278	161.431909	115	1	1.1	0.9;
	65	1	0	0	0	0	1	1.00660495	162.310845	115	1	1.1	0.9;
	66	1	45.8883564	13.3838663	0	0	1	1.00459127	161.244331	115	1	1.1	0.9;
	67	1	26.6988101	6.67399055	0	0	1	1.00153685	161.931999	115	1	1.1	0.9;
	68	1	0	0	0	0	1	1.04979082	166.587378	345	1	1.1	0.9;
	69	1	35.1478716	12.3490153	0	0	1	1.02485824	169.268305	115	1	1.1	0.9;
	70	1	0	0	0	0	1	0.991548156	163.51388	230	1	1.1	0.9;
	71	1	0	0	0	0	1	0.996178733	166.119712	230	1	1.1	0.9;
	72	1	0	0	0	0	1	0.997728463	170.529405	230	1	1.1	0.9;
	73	1	0	0	0	0	1	1.03563194	164.372057	230	1	1.1	0.9;
	74	1	42.0223388	0	0	0	1	1.03610124	169.017868	115	1	1.1	0.9;
	75	1	62.6222537	0	0	0	1	1.03255348	169.66971	115	1	1.1	0.9;
	76	1	16.5452807	0	0	0	1	1.05261197	170.866203	115	1	1.1	0.9;
	77	1	15.0092896	0	0	0	1	1.05191712	175.053517	115	1	1.1	0.9;
	78	1	57.3054188	0	0	0	1	0.995281464	169.359431	115	1	1.1	0.9;
	79	1	37.9533309	0	0	0	1	1.02010541	167.376083	115	1	1.1	0.9;
	80	1	63.3583473	0	0	0	1	0.999947391	166.212449	115	1	1.1	0.9;
	81	1	79.4176835	0	0	0	1	0.990599987	161.559802	115	1	1.1	0.9;
	82	1	0	0	0	0	1	1.00738024	166.246015	115	1	1.1	0.9;
	83	1	73.9786874	0	0	0	1	1.00255522	165.440777	115	1	1.1	0.9;
	84	1	30.4415117	0	0	0	1	1.03131955	169.164619	115	1	1.1	0.9;
	85	1	8.1846874	0	0	0	1	0.997931832	163.762102	115	1	1.1	0.9;
	86	1	47.1747804	0	0	0	1	1.02567542	168.518451	115	1	1.1	0.9;
	87	1	4.37502474	0	0	0	1	1.01445895	165.594378	115	1	1.1	0.9;
	88	1	106.605747	0	0	0	1	0.990680271	161.594639	115	1	1.1	0.9;
	89	1	29.2314515	0	0	0	1	0.985758108	157.208618	115	1	1.1	0.9;
	90	1	59.9818498	0	0	0	1	0.981376584	158.087066	115	1	1.1	0.9;
	91	1	18.5814524	0	0	0	1	0.984698364	155.91664	115	1	1.1	0.9;
	92	1	25.0735027	0	0	0	1	0.989767753	158.295485	115	1	1.1	0.9;
	93	1	17.2475735	0	0	0	1	0.987000576	156.174744	115	1	1.1	0.9;
	94	1	0	0	0	0	2	0.813920167	122.451676	115	2	1.1	0.9;
	95	1	0	0	0	0	2	0.867600252	132.658816	115	2	1.1	0.9;
	96	1	0	0	0	460	2	0.851970383	125.42751	115	2	1.1	0.9;
	97	1	5.79839322	267.262381	0	0	2	0.845074654	125.305826	115	2	1.1	0.9;
	98	1	87.33899	29.9544272	0	0	2	0.832086465	123.589903	115	2	1.1	0.9;
	99	1	-90.2520126	36.2811773	0	120	2	0.845255643	126.982518	115	2	1.1	0.9;
	100	1	212.490621	21.8450601	0	0	2	0.815180869	119.752794	115	2	1.1	0.9;
	101	1	88.7357233	4.57051251	0	0	2	0.819025666	124.364069	115	2	1.1	0.9;
	102	1	26.6805392	0.479337764	0	0	2	0.856235798	132.482855	115	2	1.1	0.9;
	103	1	88.9432783	19.0828427	0	0	2	0.859010151	132.658816	115	2	1.1	0.9;
	104	1	425.154686	68.2989742	0	0	2	0.853335148	135.556352	115	2	1.1	0.9;
	105	1	34.8339742	3.06805181	0	240	2	0.875006522	142.346155	115	2	1.1	0.9;
	106	1	324.990778	31.5775143	0	0	2	0.920592538	150.977081	230	2	1.1	0.9;
	107	1	0	0	0	0	2	0.950785622	159.614285	230	2	1.1	0.9;
	108	1	0	0	0	0	2	0.942404069	159.76019	230	2	1.1	0.9;
	109	1	0	0	0	0	2	0.990945282	176.139301	230	2	1.1	0.9;
	110	1	0	0	0	0	2	0.971028352	179.296043	230	2	1.1	0.9;
	111	1	0	0	0	0	2	0.965603701	172.785026	230	2	1.1	0.9;
	112	1	0	0	0	0	2	0.961750376	158.163596	230	2	1.1	0.9;
	113	1	0	0	0	0	2	0.977603624	154.239971	230	2	1.1	0.9;
	114	1	150.498347	37.0019527	0	0	2	0.985967963	155.875977	230	2	1.1	0.9;
	115	1	50.8443585	16.7632062	0	0	2	1.03592194	164.401061	230	2	1.1	0.9;
	116	1	252.024738	91.9288515	0	0	2	1.03732216	160.538529	230	2	1.1	0.9;
	117	1	764.685154	125.05625	0	0	2	1.05166667	151.952258	230	2	1.1	0.9;
	118	1	556.751095	77.9448492	0	0	2	1.00999991	160.764362	115	2	1.1	0.9;
	119	1	359.395342	106.324701	0	0	2	1.03749696	160.289065	230	2	1.1	0.9;
	120	1	135.854763	54.3418971	0	0	2	1.05053175	165.550607	230	2	1.1	0.9;
	121	1	52.8535323	22.9191103	0	0	2	1.01742126	166.373767	230	2	1.1	0.9;
	122	1	85.030787	33.7273931	0	0	2	1.04360228	175.341101	230	2	1.1	0.9;
	123	1	0	0	0	0	2	1.0196163	176.930689	230	2	1.1	0.9;
	124	1	22.6893595	13.2351369	0	0	2	1.01454865	169.533656	230	2	1.1	0.9;
	125	1	0	0	0	0	2	1.05304001	172.081263	230	2	1.1	0.9;
	126	1	0	0	0	0	2	1.05263803	175.680471	230	2	1.1	0.9;
	127	1	59.8018737	23.7311138	0	120	2	1.10058478	171.372708	115	2	1.1	0.9;
	128	1	0	0	0	0	2	1.07259455	176.058347	230	2	1.1	0.9;
	129	1	0	0	0	0	2	0.970947605	179.471411	230	2	1.1	0.9;
	130	1	0	0	0	0	2	0.979488984	174.618246	230	2	1.1	0.9;
	131	1	16.1393943	8.54340215	0	0	2	1.05554135	172.344617	230	2	1.1	0.9;
	132	1	0	0	0	0	2	1.04340824	173.79491	230	2	1.1	0.9;
	133	1	66.5126883	4.75014715	0	84.5	2	1.07250428	160.487297	115	2	1.1	0.9;
	134	1	188.899221	47.2248021	0	0	2	1.01824176	170.23317	230	2	1.1	0.9;
	135	1	71.3993994	47.5993051	0	0	2	0.964384761	168.763772	115	2	1.1	0.9;
	136	1	47.4735722	-9.34076385	0	0	2	0.823310529	127.693186	230	2	1.1	0.9;
	137	1	0	0	0	0	2	0.861203398	138.597172	230	2	1.1	0.9;
	138	1	12.9559085	6.47883251	0	0	2	0.822930443	126.729177	230	2	1.1	0.9;
	139	1	0	0	0	0	2	0.847019239	135.426992	230	2	1.1	0.9;
	140	1	33.1894485	14.2231927	0	0	2	1.03644373	172.243755	230	2	1.1	0.9;
	141	1	79.6431266	22.4871236	0	0	2	0.990805904	-178.069246	230	2	1.1	0.9;
	142	1	0	0.369915403	0	0	2	1.03380323	165.444327	230	2	1.1	0.9;
	143	1	0	0	0	-212	2	0.98231166	172.933456	230	2	1.1	0.9;
	144	1	0	0	0	0	2	0.99958022	-170.224572	230	2	1.1	0.9;
	145	1	0	0	0	-103	2	0.996863896	-166.29645	230	2	1.1	0.9;
	146	1	262.796522	83.8594786	0	0	2	0.918992223	158.309643	230	2	1.1	0.9;
	147	1	0	0	0	0	2	0.950830253	159.576838	230	2	1.1	0.9;
	148	1	0	0	0	0	2	0.933724411	157.160881	230	2	1.1	0.9;
	149	1	456.302195	94.7069509	0	0	2	0.91234634	170.393624	115	2	1.1	0.9;
	150	1	678.779325	258.763078	0	0	2	0.944254398	153.886035	115	2	1.1	0.9;
	151	1	24.8460711	0	0	0	2	1.02863756	159.59849	115	2	1.1	0.9;
	152	1	152.61179	40.1361606	0	53	2	0.992959491	155.751887	115	2	1.1	0.9;
	153	1	0	0	0	0	2	1.06381315	163.213376	115	2	1.1	0.9;
	154	1	164.674407	77.6577811	0	0	2	0.981533837	162.428406	115	2	1.1	0.9;
	155	1	4.74809122	3.79930358	0	0	2	1.05194116	175.117177	115	2	1.1	0.9;
	156	1	26.581277	11.3917015	0	0	2	1.00721752	171.475299	115	2	1.1	0.9;
	157	1	403.99654	164.093148	0	0	2	0.956495155	164.26614	115	2	1.1	0.9;
	158	1	69.6918359	27.3109456	0	45	2	0.994626382	161.598012	115	2	1.1	0.9;
	159	1	65.6828649	46.592886	0	0	2	0.989776607	167.058573	115	2	1.1	0.9;
	160	1	67.7332166	0	0	0	2	1.04346048	160.133645	230	2	1.1	0.9;
	161	1	224.027699	82.8350413	0	0	2	1.04126956	159.808235	230	2	1.1	0.9;
	162	1	37.9962425	3.79962846	0	0	2	0.989797558	170.373638	115	2	1.1	0.9;
	163	1	123.592044	14.9971421	0	0	2	1.02061202	155.715544	230	2	1.1	0.9;
	164	1	0	0	0	0	2	1.0508311	158.226442	230	2	1.1	0.9;
	165	1	55.6457471	22.6118133	0	0	2	1.06392025	163.839759	230	2	1.1	0.9;
	166	1	55.3477329	22.4912914	0	0	2	1.06367895	162.867397	230	2	1.1	0.9;
	167	1	168.776142	40.2998388	0	0	2	1.04638711	160.788905	230	2	1.1	0.9;
	168	1	6.66040048	1.902559	0	0	3	1.01159205	162.084355	66	3	1.1	0.9;
	169	1	0	0	0	-150	3	1.0550932	167.717845	345	3	1.1	0.9;
	170	1	464.223929	50.3143891	0	0	3	1.04237463	-167.798951	230	3	1.1	0.9;
	171	1	768.836912	69.1951373	0	0	3	0.95777955	171.696297	230	3	1.1	0.9;
	172	1	0	0	0	0	3	1.01628421	161.68761	66	3	1.1	0.9;
	173	1	0	0	0	0	3	1.05743205	167.669342	345	3	1.1	0.9;
	174	1	0	0	0	0	3	1.043815	166.343611	345	3	1.1	0.9;
	175	1	9.49178474	2.84743457	0	0	3	0.982624941	162.412099	115	3	1.1	0.9;
	176	1	40.8586574	13.3028623	0	0	3	0.9991806	164.064622	115	3	1.1	0.9;
	177	1	60.7912837	19.9471474	0	0	3	1.01484636	167.398385	115	3	1.1	0.9;
	178	1	33.2603177	11.4034236	0	0	3	0.962490439	162.211664	115	3	1.1	0.9;
	179	1	25.7001273	11.4225829	0	0	3	0.96525024	162.475592	115	3	1.1	0.9;
	180	1	39.0308451	13.3275048	0	50	1	1.05598034	159.112697	66	1	1.1	0.9;
	181	1	36.1019024	12.3505764	0	0	3	0.999163213	162.443471	66	3	1.1	0.9;
	182	1	39.9037752	13.3012566	0	0	3	1.0072694	165.487514	115	3	1.1	0.9;
	183	1	68.5279665	22.8429783	0	0	3	1.01726877	161.984426	66	3	1.1	0.9;
	184	1	0	-4.75607624	0	0	3	1.01790968	161.571071	66	3	1.1	0.9;
	185	1	11.3082513	1.88438634	0	0	3	1.01424989	158.850923	66	3	1.1	0.9;
	186	1	-19.6754741	-13.3046079	0	0	1	1.02197954	158.142377	66	1	1.1	0.9;
	187	1	6.66069788	1.90264394	0	0	3	1.01232216	161.433112	66	3	1.1	0.9;
	188	1	36.1813637	12.3781925	0	0	3	1.01147152	162.415665	66	3	1.1	0.9;
	189	1	0	0	0	0	3	0.986601091	163.80279	115	3	1.1	0.9;
	190	1	91.2782123	6.65598596	0	0	3	1.01040743	164.285452	115	3	1.1	0.9;
	191	1	0	0	0	0	3	1.02081774	165.090471	138	3	1.1	0.9;
	192	1	0	0	0	0	3	1.00976426	177.244347	16.5	3	1.1	0.9;
	193	1	20.8868957	15.1907244	0	0	3	0.992462636	171.336143	138	3	1.1	0.9;
	194	1	44.6352997	24.6919066	0	0	3	0.989171078	168.418133	138	3	1.1	0.9;
	195	1	167.152355	99.7206934	0	0	3	0.978312725	166.138295	138	3	1.1	0.9;
	196	1	95.0304532	71.2730974	0	0	3	1.02260573	166.239772	138	3	1.1	0.9;
	197	1	124.484475	91.2242584	0	0	3	1.00870274	165.833544	138	3	1.1	0.9;
	198	1	0	0	0	0	3	1.05597634	167.041694	345	3	1.1	0.9;
	199	1	270.583816	94.9410611	0	0	3	1.00755943	166.986187	138	3	1.1	0.9;
	200	1	162.37441	66.4692624	0	0	3	0.999604407	165.864368	138	3	1.1	0.9;
...
];

%% generator data
%	bus	Pg	Qg	Qmax	Qmin	Vg	mBase	status	Pmax	Pmin	Pc1	Pc2	Qc1min	Qc1max	Qc2min	Qc2max	ramp_agc	ramp_10	ramp_30	ramp_q	apf	mu_Pmax	mu_Pmin	mu_Qmax	mu_Qmin
mpc.gen = [
	301	-3.9729	-1.95841288	10	-10	1.01516	25	1	-5	-5	0	0	0	0	0	0	0	0	0	0	0	0.0000	0.0000	0.0000	0.0000;
	302	-3.95675	14.295783	20	-20	1.01622	25	1	-5	-5	0	0	0	0	0	0	0	0	0	0	0	0.0000	0.0000	0.0000	0.0000;
	303	-8.66115	-4.95564629	20	-20	0.99755	27	1	-10	-10	0	0	0	0	0	0	0	0	0	0	0	0.0000	0.0000	0.0000	0.0000;
	304	0.92815	13.2923348	25	-25	0.95996	30	1	100	0	0	0	0	0	0	0	0	0	0	0	0	0.0000	0.0000	0.0000	0.0000;
	305	1.28155	-9.67826454	35	12	0.98048	42	1	100	0	0	0	0	0	0	0	0	0	0	0	0	0.0000	0.0000	0.0000	0.0000;
	306	382.2648	85.5743346	240	-240	1.02495	835	1	475	0	0	0	0	0	0	0	0	0	0	0	0	0.0000	0.0000	0.0000	0.0000;
	307	155.79525	36.3999954	96	-11	1.05265	270	1	255	0	0	0	0	0	0	0	0	0	0	0	0	0.0000	0.0000	0.0000	0.0000;
	308	288.4599	21.9248802	153	-153	1.05194	410	1	390	0	0	0	0	0	0	0	0	0	0	0	0	0.0000	0.0000	0.0000	0.0000;
	309	68.53205	-15.8060708	56	-30	0.99993	125	1	168	0	0	0	0	0	0	0	0	0	0	0	0	0.0000	0.0000	0.0000	0.0000;
	310	119.6525	-0.235868732	77	-24	0.99068	270	1	217	0	0	0	0	0	0	0	0	0	0	0	0	0.0000	0.0000	0.0000	0.0000;
	314	-840.8697	347.833589	350	-125	1.05203	1187	1	-925.03	-925.03	0	0	0	0	0	0	0	0	0	0	0	0.0000	0.0000	0.0000	0.0000;
	315	280.1531	65.2218918	75	-50	1.0506	410	1	381	0	0	0	0	0	0	0	0	0	0	0	0	0.0000	0.0000	0.0000	0.0000;
	316	690.41535	-20.8944646	300	-100	1.04358	911	1	796	0	0	0	0	0	0	0	0	0	0	0	0	0.0000	0.0000	0.0000	0.0000;
	317	83.79285	28.7101786	35	-15	1.05307	125	1	184	0	0	0	0	0	0	0	0	0	0	0	0	0.0000	0.0000	0.0000	0.0000;
	318	219.3018	-45.9398393	100	-50	1.05259	410	1	317	0	0	0	0	0	0	0	0	0	0	0	0	0.0000	0.0000	0.0000	0.0000;
	319	106.46935	44.323738	50	-25	1.07264	270	1	203	0	0	0	0	0	0	0	0	0	0	0	0	0.0000	0.0000	0.0000	0.0000;
	320	380.4199	-10.8239544	175	-50	1.05553	835	1	472	0	0	0	0	0	0	0	0	0	0	0	0	0.0000	0.0000	0.0000	0.0000;
	321	218.43445	-55.2175153	90	-50	1.04335	410	1	316	0	0	0	0	0	0	0	0	0	0	0	0	0.0000	0.0000	0.0000	0.0000;
	322	0.79135	-12.9406297	15	-10	0.96437	25	1	100	0	0	0	0	0	0	0	0	0	0	0	0	0.0000	0.0000	0.0000	0.0000;
	323	208.0063	44.5364219	90	-40	1.00364	410	1	305	0	0	0	0	0	0	0	0	0	0	0	0	0.0000	0.0000	0.0000	0.0000;
	324	5.6506	133.591222	150	-50	0.94441	180	1	100	0	0	0	0	0	0	0	0	0	0	0	0	0.0000	0.0000	0.0000	0.0000;
	325	229.7252	37.1699438	90	-45	1.05198	410	1	328	0	0	0	0	0	0	0	0	0	0	0	0	0.0000	0.0000	0.0000	0.0000;
	326	88.41935	11.4320523	35	-15	1.00723	270	1	184	0	0	0	0	0	0	0	0	0	0	0	0	0.0000	0.0000	0.0000	0.0000;
	327	203.3114	104.065375	80	-50	1.05094	410	1	300	0	0	0	0	0	0	0	0	0	0	0	0	0.0000	0.0000	0.0000	0.0000;
	328	1188.29135	368.103219	400	-100	1.0643	1491	1	1300	0	0	0	0	0	0	0	0	0	0	0	0	0.0000	0.0000	0.0000	0.0000;
	329	1189.1245	437.028207	400	-100	1.06413	1517	1	1300	0	0	0	0	0	0	0	0	0	0	0	0	0.0000	0.0000	0.0000	0.0000;
	330	477.1033	-31.7285594	300	-300	1.05506	835	1	575	0	0	0	0	0	0	0	0	0	0	0	0	0.0000	0.0000	0.0000	0.0000;
	331	1787.89845	547.144202	1000	-1000	1.04295	2510	1	2073	0	0	0	0	0	0	0	0	0	0	0	0	0.0000	0.0000	0.0000	0.0000;
	332	428.7426	49.5901356	260	-260	1.0149	835	1	524	0	0	0	0	0	0	0	0	0	0	0	0	0.0000	0.0000	0.0000	0.0000;
	333	274.2213	42.0257	150	-150	1.00981	512	1	372	0	0	0	0	0	0	0	0	0	0	0	0	0.0000	0.0000	0.0000	0.0000;
	334	103.34005	28.0092301	60	-60	1.00759	270	1	200	0	0	0	0	0	0	0	0	0	0	0	0	0.0000	0.0000	0.0000	0.0000;
	335	453.35235	59.7232526	320	-320	0.99967	835	1	550	0	0	0	0	0	0	0	0	0	0	0	0	0.0000	0.0000	0.0000	0.0000;
	336	250.2072	169.640279	300	-300	1.0499	410	1	350	0	0	0	0	0	0	0	0	0	0	0	0	0.0000	0.0000	0.0000	0.0000;
	337	303.67605	251.604574	300	-300	0.99991	512	1	403	0	0	0	0	0	0	0	0	0	0	0	0	0.0000	0.0000	0.0000	0.0000;
	338	353.54535	40.2233024	250	-250	1.03986	835	1	445	0	0	0	0	0	0	0	0	0	0	0	0	0.0000	0.0000	0.0000	0.0000;
	339	300.81655	129.085896	500	-500	0.99987	512	1	400	0	0	0	0	0	0	0	0	0	0	0	0	0.0000	0.0000	0.0000	0.0000;
	340	598.253	290.122683	300	-300	1.01559	911	1	700	0	0	0	0	0	0	0	0	0	0	0	0	0.0000	0.0000	0.0000	0.0000;
	341	250.192	139.282232	200	-200	1.00984	410	1	350	0	0	0	0	0	0	0	0	0	0	0	0	0.0000	0.0000	0.0000	0.0000;
	342	550.7264	70.3811892	400	-400	1.00003	911	1	650	0	0	0	0	0	0	0	0	0	0	0	0	0.0000	0.0000	0.0000	0.0000;
	343	574.3149	-31.6271098	600	-600	1.05002	911	1	675.4	0	0	0	0	0	0	0	0	0	0	0	0	0.0000	0.0000	0.0000	0.0000;
	344	174.1901	37.8767371	100	40	0.99285	410	1	270	0	0	0	0	0	0	0	0	0	0	0	0	0.0000	0.0000	0.0000	0.0000;
	345	88.1448	47.8336055	80	40	1.0097	270	1	184	0	0	0	0	0	0	0	0	0	0	0	0	0.0000	0.0000	0.0000	0.0000;
	346	470.29845	151.303951	210	-210	1.05044	835	1	567	0	0	0	0	0	0	0	0	0	0	0	0	0.0000	0.0000	0.0000	0.0000;
	347	620.977	111.266612	280	-280	1.05077	911	1	723	0	0	0	0	0	0	0	0	0	0	0	0	0.0000	0.0000	0.0000	0.0000;
	348	1198.7062	446.614641	420	-420	1.02898	1537	1	1310	0	0	0	0	0	0	0	0	0	0	0	0	0.0000	0.0000	0.0000	0.0000;
	349	235.37295	56.0239094	100	-100	1.01427	410	1	334	0	0	0	0	0	0	0	0	0	0	0	0	0.0000	0.0000	0.0000	0.0000;
	350	380.01425	214.519039	224	-224	1.05048	835	1	472	0	0	0	0	0	0	0	0	0	0	0	0	0.0000	0.0000	0.0000	0.0000;
	351	339.95655	306.83846	350	0	1.05026	835	1	430	0	0	0	0	0	0	0	0	0	0	0	0	0.0000	0.0000	0.0000	0.0000;
	352	188.80205	7.0006715	120	0	1.05056	410	1	285	0	0	0	0	0	0	0	0	0	0	0	0	0.0000	0.0000	0.0000	0.0000;
	353	416.09145	109.988206	224	-224	1.02884	835	1	510	0	0	0	0	0	0	0	0	0	0	0	0	0.0000	0.0000	0.0000	0.0000;
	354	501.33305	117.997587	200	-200	1.05009	835	1	600	0	0	0	0	0	0	0	0	0	0	0	0	0.0000	0.0000	0.0000	0.0000;
	355	39.0811	30.7673124	42	0	1.01436	125	1	137	0	0	0	0	0	0	0	0	0	0	0	0	0.0000	0.0000	0.0000	0.0000;
	356	463.011	19.5336643	0	0	1.05065	835	1	2399	0	0	0	0	0	0	0	0	0	0	0	0	0.0000	0.0000	0.0000	0.0000;
	357	46.6773	19.7607874	25	0	0.99668	125	1	145	0	0	0	0	0	0	0	0	0	0	0	0	0.0000	0.0000	0.0000	0.0000;
	358	169.6662	81.5079285	90	-90	1.02116	410	1	265	0	0	0	0	0	0	0	0	0	0	0	0	0.0000	0.0000	0.0000	0.0000;
	359	406.3587	109.107399	150	-150	1.01436	835	1	500	0	0	0	0	0	0	0	0	0	0	0	0	0.0000	0.0000	0.0000	0.0000;
	360	406.3891	134.110725	150	0	1.00161	835	1	500	0	0	0	0	0	0	0	0	0	0	0	0	0.0000	0.0000	0.0000	0.0000;
	361	118.6132	-10.4559785	87	0	0.99752	270	1	216	0	0	0	0	0	0	0	0	0	0	0	0	0.0000	0.0000	0.0000	0.0000;
	362	1279.29565	472.012893	600	-100	1.04958	1611	1	1392	0	0	0	0	0	0	0	0	0	0	0	0	0.0000	0.0000	0.0000	0.0000;
	363	694.42625	289.345524	325	-125	1.05018	911	1	800	0	0	0	0	0	0	0	0	0	0	0	0	0.0000	0.0000	0.0000	0.0000;
	364	554.7715	139.662134	300	-200	1.0146	911	1	653	0	0	0	0	0	0	0	0	0	0	0	0	0.0000	0.0000	0.0000	0.0000;
	365	-3.22145	1.03019727	2	-2	0.99968	25	1	-4.2	-4.2	0	0	0	0	0	0	0	0	0	0	0	0.0000	0.0000	0.0000	0.0000;
	366	-30.08935	12.1014903	17.35	-17.35	0.99992	125	1	-35.81	-35.81	0	0	0	0	0	0	0	0	0	0	0	0.0000	0.0000	0.0000	0.0000;
	367	-21.2287	8.21067191	12.83	-12.8	0.99993	125	1	-26.48	-26.48	0	0	0	0	0	0	0	0	0	0	0	0.0000	0.0000	0.0000	0.0000;
	368	51.43585	14.163306	38	-38	0.99999	125	1	150	0	0	0	0	0	0	0	0	0	0	0	0	0.0000	0.0000	0.0000	0.0000;
	369	8.37235	2.8606381	6	-6	1.00213	25	1	108	0	0	0	0	0	0	0	0	0	0	0	0	0.0000	0.0000	0.0000	0.0000;
];

%% branch data
%	fbus	tbus	r	x	b	rateA	rateB	rateC	ratio	angle	status	angmin	angmax	Pf	Qf	Pt	Qt
mpc.branch = [
	1	5	0.001	0.00600007	0	756.99	984.08	984.09	0	0	1	-360	360	390.9200	101.2150	-389.3707	-91.9194;
	2	6	0.001	0.0090001	0	294.9	383.38	383.37	0	0	1	-360	360	187.0813	41.3025	-186.7372	-38.2059;
	2	8	0.006	0.0270003	0.054	672.44	874.17	874.17	0	0	1	-360	360	309.6342	8.1803	-304.2351	10.4530;
	3	7	0	0.00300003	0	543.03	705.94	705.94	0	0	1	-360	360	317.1178	153.1556	-317.1178	-149.3637;
	3	18	0.008	0.0690008	0.139	400.15	520.2	520.2	0	0	1	-360	360	103.1107	-1.5830	-102.2417	-4.4314;
	3	129	0.001	0.00700008	0	706.7	918.71	918.71	0	0	1	-360	360	381.6451	227.3774	-379.6338	-213.2977;
	4	16	0.002	0.0190002	1.12701	1200.04	1560.05	1560.05	0	0	1	-360	360	440.3350	-155.2922	-436.4878	71.4082;
	5	9	0.006	0.0290003	0.018	193.71	251.82	251.82	0	0	1	-360	360	95.9024	30.6692	-95.3103	-29.6408;
	7	12	0.001	0.0090001	0.07	362.29	470.98	470.98	0	0	1	-360	360	70.6805	-88.2841	-70.5550	82.5599;
	7	110	0.001	0.00700008	0.014	614.65	799.04	799.05	0	0	1	-360	360	280.8892	171.9550	-279.7710	-165.4681;
	8	11	0.013	0.0595007	0.033	262.38	341.09	341.09	0	0	1	-360	360	12.3462	13.6626	-12.2972	-16.8039;
	8	14	0.013	0.0420005	0.081	559.22	726.99	726.99	0	0	1	-360	360	232.8853	-39.3569	-225.8875	53.7011;
	9	11	0.006	0.0270003	0.013	162.09	210.72	210.72	0	0	1	-360	360	4.6003	-10.9893	-4.5926	9.7151;
	11	13	0.008	0.0340004	0.018	480.36	624.46	624.47	0	0	1	-360	360	145.7271	-5.4725	-144.0420	10.8334;
	12	20	0.002	0.0150002	0.118	794.77	1033.2	1033.2	0	0	1	-360	360	334.9324	89.7981	-332.4717	-82.7471;
	13	19	0.006	0.0340004	0.016	303.42	394.44	394.45	0	0	1	-360	360	89.1870	-20.2907	-88.6826	21.5593;
	14	15	0.014	0.0420005	0.097	696.53	905.49	905.49	0	0	1	-360	360	73.3420	-110.9063	-71.0386	107.6720;
	15	31	0.065	0.248003	0.121	146.69	190.7	190.7	0	0	1	-360	360	1.7981	-2.0984	-1.7843	-10.7908;
	15	74	0.099	0.248003	0.035	85.59	111.26	111.27	0	0	1	-360	360	7.1121	-3.0111	-7.0647	-0.6417;
	15	75	0.096	0.363004	0.048	85.35	110.95	110.96	0	0	1	-360	360	2.1965	-1.0243	-2.1900	-4.1061;
	16	36	0.002	0.0220003	1.28001	808.78	1051.41	1051.41	0	0	1	-360	360	172.6971	-163.4242	-171.9814	30.5395;
	18	20	0.002	0.0180002	0.036	258.39	335.91	335.91	0	0	1	-360	360	-24.9612	45.4491	25.0204	-48.3536;
	18	72	0.013	0.0800009	0.151	376.94	490.02	490.02	0	0	1	-360	360	127.2029	-41.0177	-124.8642	40.6259;
	19	21	0.016	0.0330004	0.015	241.98	314.57	314.57	0	0	1	-360	360	-21.8941	19.8052	22.0391	-20.9940;
	19	26	0.069	0.186002	0.098	323.54	420.61	420.6	0	0	1	-360	360	20.1831	-0.5313	-19.8875	-8.2167;
	20	23	0.004	0.0340004	0.28	373.69	485.8	485.8	0	0	1	-360	360	-245.4762	-64.9721	248.1349	60.1838;
	21	22	0.052	0.111001	0.05	388.72	505.33	505.34	0	0	1	-360	360	-98.5987	-0.7446	103.7134	6.4355;
	22	24	0.019	0.0390004	0.018	231.91	301.49	301.48	0	0	1	-360	360	122.5370	11.0754	-119.9234	-7.6466;
	23	231	0.007	0.0680008	0.134	208.98	271.67	271.67	0	0	1	-360	360	110.5781	-27.8528	-109.6993	22.7356;
	24	25	0.036	0.0710008	0.034	143.6	186.68	186.68	0	0	1	-360	360	77.2531	-3.7323	-75.2033	4.2930;
	25	26	0.045	0.120001	0.065	82.26	106.94	106.94	0	0	1	-360	360	46.3476	0.3286	-45.3747	-4.0794;
	25	232	0.043	0.130001	0.014	30	39	39	0	0	1	-360	360	2.3424	-13.1436	-2.2734	11.9313;
	27	32	0.0025	0.0120001	0.013	164.63	214.01	214.02	0	0	1	-360	360	73.6969	19.5250	-73.5605	-20.2559;
	27	34	0.006	0.0290003	0.02	81.79	106.32	106.33	0	0	1	-360	360	43.3170	2.9940	-43.2109	-4.6141;
	27	35	0.007	0.0430005	0.026	134.83	175.28	175.28	0	0	1	-360	360	-63.3078	0.0857	63.5701	-1.2678;
	28	36	0.001	0.00800009	0.042	202.68	263.49	263.48	0	0	1	-360	360	-105.9647	-35.3876	106.0757	31.5963;
	29	60	0.012	0.0600007	0.008	133.07	173	172.99	0	0	1	-360	360	45.2525	-18.2605	-44.9654	18.8994;
	29	63	0.006	0.0140002	0.002	185.71	241.42	241.42	0	0	1	-360	360	110.6028	54.4651	-109.6806	-52.5082;
	29	64	0.01	0.0290003	0.003	77.27	100.46	100.45	0	0	1	-360	360	-59.3004	-2.3496	59.6562	3.0827;
	30	73	0.004	0.0270003	0.043	357.03	464.15	464.14	0	0	1	-360	360	-96.5549	-38.8274	96.9633	37.0326;
	31	32	0.008	0.0470005	0.008	145.12	188.66	188.66	0	0	1	-360	360	47.4058	-12.5049	-47.2248	12.7210;
	31	34	0.022	0.0640007	0.007	73.35	95.35	95.35	0	0	1	-360	360	36.9091	-16.6801	-36.5703	16.9235;
	31	35	0.01	0.0360004	0.02	200.13	260.17	260.17	0	0	1	-360	360	-38.6216	-19.2263	38.7939	17.7106;
	31	43	0.017	0.0810009	0.048	359.55	467.41	467.41	0	0	1	-360	360	-193.3876	25.8117	199.5292	-1.7313;
	31	74	0.102	0.254003	0.033	57.65	74.94	74.94	0	0	1	-360	360	4.6830	-6.7207	-4.6380	3.3168;
	31	75	0.047	0.127001	0.016	96.75	125.77	125.78	0	0	1	-360	360	2.2354	-5.0891	-2.2252	3.4178;
	32	35	0.008	0.0370004	0.02	209.19	271.95	271.95	0	0	1	-360	360	-96.2084	-1.2202	96.9059	2.3056;
	32	37	0.032	0.087001	0.04	141.56	184.03	184.03	0	0	1	-360	360	69.7813	-8.3407	-68.3021	8.1753;
	33	36	0.0006	0.00640007	0.404	809.05	1051.77	1051.77	0	0	1	-360	360	501.3331	46.9668	-499.9748	-77.9213;
	34	42	0.026	0.154002	0.022	73.02	94.92	94.93	0	0	1	-360	360	36.1029	7.6306	-35.7651	-7.9209;
	35	43	0.065	0.191002	0.02	134.34	174.64	174.64	0	0	1	-360	360	-70.9761	22.4408	74.3456	-14.7201;
	35	44	0.031	0.089001	0.036	172.48	224.22	224.22	0	0	1	-360	360	-46.5432	22.4437	47.3367	-24.0258;
	36	40	0.002	0.0140002	0.80601	1176.14	1528.99	1528.98	0	0	1	-360	360	402.5419	-56.1103	-399.6405	-13.2679;
	37	38	0.026	0.0720008	0.035	131.89	171.46	171.46	0	0	1	-360	360	-0.3203	-17.4080	0.3817	13.9266;
	37	42	0.095	0.262003	0.032	30	39	39	0	0	1	-360	360	-1.0018	0.9721	1.0090	-4.2352;
	37	46	0.013	0.0390004	0.016	71.18	92.53	92.53	0	0	1	-360	360	32.3565	-0.3398	-32.2245	-0.9085;
	38	41	0.027	0.084001	0.039	218.06	283.47	283.48	0	0	1	-360	360	97.5956	2.5223	-95.1517	1.0718;
	38	47	0.028	0.084001	0.037	102.49	133.24	133.24	0	0	1	-360	360	-14.6418	11.2134	14.7448	-14.7815;
	39	52	0.007	0.0410005	0.312	336.41	437.34	437.33	0	0	1	-360	360	-159.2608	14.7715	160.9615	-38.6792;
	39	62	0.009	0.0540006	0.411	731.95	951.54	951.54	0	0	1	-360	360	165.5118	-6.0595	-163.2182	-23.9692;
	40	68	0.005	0.0420005	0.69001	579.94	753.93	753.92	0	0	1	-360	360	161.9814	-45.7328	-160.7945	-20.5350;
	41	61	0.052	0.145002	0.073	105.31	136.9	136.9	0	0	1	-360	360	7.5406	-9.9547	-7.4904	2.7462;
	41	92	0.043	0.118001	0.013	43.78	56.91	56.91	0	0	1	-360	360	31.9610	-2.4391	-31.5209	2.3590;
	42	87	0.025	0.0620007	0.007	72.96	94.85	94.85	0	0	1	-360	360	-4.2478	-5.9188	4.2598	5.2313;
	43	44	0.031	0.0940011	0.043	174.26	226.54	226.54	0	0	1	-360	360	103.9089	-12.4402	-100.8432	17.0747;
	44	45	0.037	0.109001	0.049	114.87	149.33	149.33	0	0	1	-360	360	58.2056	2.2519	-57.0218	-3.8676;
	45	48	0.027	0.0800009	0.036	77.25	100.43	100.43	0	0	1	-360	360	-0.7114	-22.6327	0.8264	19.2520;
	46	47	0.025	0.0730008	0.035	91.85	119.4	119.4	0	0	1	-360	360	-33.7152	-1.9581	33.9929	-0.8434;
	47	48	0.035	0.103001	0.047	119.98	155.97	155.97	0	0	1	-360	360	-58.2962	14.6685	59.5372	-15.9318;
	48	49	0.065	0.169002	0.082	143.84	186.99	186.99	0	0	1	-360	360	-34.6092	2.4268	35.3782	-9.1505;
	49	50	0.046	0.0800009	0.036	102.18	132.83	132.83	0	0	1	-360	360	4.0039	51.6466	-2.7705	-53.2214;
	49	55	0.159	0.537006	0.071	64.54	83.9	83.9	0	0	1	-360	360	37.0247	3.5459	-34.9205	-3.5333;
	50	51	0.009	0.0260003	0.005	99.4	129.22	129.22	0	0	1	-360	360	-10.5229	52.2725	10.7838	-52.0074;
	51	53	0.002	0.0130001	0.015	372.08	483.71	483.7	0	0	1	-360	360	-217.7502	-48.6268	218.7809	53.8634;
	52	54	0.009	0.0650007	0.48501	348.49	453.04	453.04	0	0	1	-360	360	-160.9615	38.6792	163.4593	-72.2450;
	54	56	0.016	0.105001	0.203	343.83	446.98	446.98	0	0	1	-360	360	180.7101	44.4596	-175.2318	-28.2964;
	54	123	0.001	0.00700008	0.013	295.77	384.51	384.5	0	0	1	-360	360	34.2494	13.0506	-34.2363	-14.3123;
	55	236	0.0265	0.172002	0.026	249.29	324.08	324.08	0	0	1	-360	360	144.4082	3.3538	-138.4052	33.2443;
	57	66	0.051	0.157002	0.023	82.14	106.78	106.78	0	0	1	-360	360	-3.7971	5.6582	3.8275	-7.9059;
	57	190	0.051	0.232003	0.028	40.7	52.91	52.91	0	0	1	-360	360	-25.7944	6.3250	26.1548	-7.5519;
	58	59	0.032	0.100001	0.062	168.96	219.64	219.65	0	0	1	-360	360	-80.9746	2.1818	82.9620	-2.6944;
	58	237	0.02	0.123401	0.028	60.27	78.36	78.35	0	0	1	-360	360	27.1965	-21.3881	-26.9823	19.6843;
	59	60	0.036	0.131002	0.068	285.83	371.58	371.58	0	0	1	-360	360	-27.1678	46.7212	28.2356	-50.0072;
	59	61	0.034	0.0990011	0.047	185.84	241.6	241.59	0	0	1	-360	360	-48.5578	66.2678	50.7363	-64.9069;
	60	64	0.018	0.087001	0.011	95.99	124.78	124.79	0	0	1	-360	360	-51.2986	10.1586	51.7924	-8.8740;
	60	238	0.0256	0.193002	0	30	39	39	0	0	1	-360	360	13.4533	2.7577	-13.4050	-2.3941;
	61	63	0.021	0.0570007	0.03	190.07	247.09	247.09	0	0	1	-360	360	13.9220	38.2958	-13.5528	-40.2537;
	61	66	0.018	0.0520006	0.018	313.02	406.93	406.93	0	0	1	-360	360	-45.3321	18.1162	45.7620	-18.6932;
	62	73	0.004	0.0270003	0.05	339.61	441.49	441.49	0	0	1	-360	360	-112.6397	-33.9858	113.1627	32.2209;
	62	240	0.0286	0.201302	0.379	106.91	138.98	138.98	0	0	1	-360	360	49.2896	-17.6728	-48.6238	-16.7544;
	63	64	0.016	0.0430005	0.004	122.13	158.77	158.77	0	0	1	-360	360	-74.6291	-19.3598	75.6172	21.6224;
	64	65	0.001	0.00600007	0.007	495.03	643.54	643.54	0	0	1	-360	360	-264.2339	-39.3326	264.9451	42.8944;
	64	67	0.014	0.0700008	0.038	81.55	106.01	106.02	0	0	1	-360	360	-12.0217	0.5187	12.0427	-4.2253;
	64	239	0.0891	0.267603	0.029	30	39	39	0	0	1	-360	360	-10.5070	-3.9840	10.6108	1.3387;
	64	241	0.0782	0.212702	0.022	57.2	74.36	74.36	0	0	1	-360	360	28.9544	0.1996	-28.2995	-0.5737;
	65	66	0.006	0.0220003	0.011	409.58	532.46	532.45	0	0	1	-360	360	82.1718	-12.9577	-81.7629	13.3449;
	65	69	0	0.0360004	0	694.72	903.14	903.14	0	0	1	-360	360	-347.1169	-29.9367	347.1169	73.0646;
	66	190	0.099	0.375004	0.051	30	39	39	0	0	1	-360	360	-13.7149	-0.1297	13.9053	-4.3260;
	67	190	0.022	0.107001	0.058	148.68	193.28	193.28	0	0	1	-360	360	-38.7415	-2.4487	39.0708	-1.8197;
	68	173	0.0035	0.0330004	0.53001	357	464.1	464.1	0	0	1	-360	360	-65.2984	-45.9877	65.4428	-11.4882;
	68	174	0.0035	0.0330004	0.53001	458.48	596.02	596.02	0	0	1	-360	360	15.9670	-11.8586	-15.9494	-46.0537;
	70	71	0.008	0.0640007	0.128	150.49	195.64	195.64	0	0	1	-360	360	-69.7753	-3.1486	70.1722	-6.3191;
	71	72	0.012	0.0930011	0.183	195.01	253.51	253.51	0	0	1	-360	360	-80.6345	2.8278	81.4378	-14.7902;
	71	234	0.006	0.0480005	0.092	51.8	67.34	67.34	0	0	1	-360	360	-14.1922	16.5787	14.2314	-25.3101;
	74	76	0.047	0.119001	0.014	126.88	164.95	164.94	0	0	1	-360	360	-30.3196	-2.6751	30.7237	2.1712;
	75	77	0.032	0.174002	0.024	108.02	140.43	140.43	0	0	1	-360	360	-58.2071	0.6883	59.2251	2.2402;
	76	78	0.1	0.253003	0.031	91.27	118.65	118.65	0	0	1	-360	360	17.6200	15.3137	-17.0780	-17.1952;
	76	79	0.022	0.0770009	0.039	167.85	218.2	218.21	0	0	1	-360	360	90.9063	18.8897	-89.1774	-17.0285;
	77	84	0.019	0.144002	0.017	139	180.7	180.7	0	0	1	-360	360	78.4395	7.7319	-77.3701	-1.4716;
	77	86	0.017	0.0920011	0.012	218.68	284.28	284.28	0	0	1	-360	360	135.7860	11.8695	-132.9292	2.2959;
	78	79	0.278	0.427005	0.043	58.28	75.77	75.76	0	0	1	-360	360	3.1989	-9.8560	-3.0026	5.7904;
	79	82	0.022	0.0530006	0.007	68.12	88.55	88.56	0	0	1	-360	360	41.4249	7.3100	-41.0497	-7.1254;
	79	83	0.038	0.0920011	0.012	73.49	95.54	95.54	0	0	1	-360	360	39.1597	3.2948	-38.5941	-3.1529;
	79	84	0.048	0.122001	0.015	74.42	96.75	96.75	0	0	1	-360	360	-26.3579	0.6332	26.6793	-1.3945;
	80	82	0.024	0.0640007	0.007	62.32	81.01	81.02	0	0	1	-360	360	-4.6263	-10.2279	4.6548	9.5989;
	80	83	0.034	0.121001	0.015	30	39	39	0	0	1	-360	360	9.8000	-5.5836	-9.7594	4.2243;
	81	87	0.053	0.135002	0.017	82.88	107.74	107.74	0	0	1	-360	360	-50.7068	3.4105	52.1052	-1.5573;
	81	88	0.002	0.00400005	0.002	118.84	154.49	154.49	0	0	1	-360	360	-12.7271	4.2817	12.7308	-4.4706;
	81	89	0.045	0.354004	0.044	55.01	71.52	71.51	0	0	1	-360	360	20.8642	-2.6611	-20.6644	-0.0642;
	81	90	0.05	0.174002	0.022	77.58	100.86	100.85	0	0	1	-360	360	32.9273	-4.2643	-32.3697	4.0660;
	82	83	0.016	0.0380004	0.004	70.35	91.46	91.46	0	0	1	-360	360	36.3949	-2.4735	-36.1852	2.5674;
	83	85	0.043	0.0640007	0.027	91.09	118.41	118.42	0	0	1	-360	360	35.2144	-17.1030	-34.5779	15.3492;
	84	86	0.019	0.0620007	0.008	160.84	209.09	209.09	0	0	1	-360	360	20.2494	2.8661	-20.1742	-3.4670;
	85	88	0.076	0.130001	0.044	67.92	88.29	88.3	0	0	1	-360	360	24.0980	-10.1682	-23.6062	6.6593;
	85	233	0.044	0.124001	0.015	30	39	39	0	0	1	-360	360	2.2952	-5.1810	-2.2842	3.7114;
	86	87	0.012	0.088001	0.011	131.08	170.4	170.4	0	0	1	-360	360	61.1713	5.6925	-60.7400	-3.6741;
	86	90	0.157	0.400005	0.047	76.81	99.86	99.85	0	0	1	-360	360	44.7572	-4.5213	-41.7614	7.4185;
	88	235	0.074	0.208002	0.026	48.88	63.54	63.54	0	0	1	-360	360	23.9222	-2.4406	-23.4897	1.1406;
	89	90	0.07	0.184002	0.021	30	39	39	0	0	1	-360	360	-6.2408	3.7630	6.2853	-5.6775;
	89	92	0.1	0.274003	0.031	30	39	39	0	0	1	-360	360	-6.4043	-0.5473	6.4474	-2.3590;
	89	93	0.109	0.393005	0.036	30	39	39	0	0	1	-360	360	4.0780	-3.1515	-4.0571	-0.2759;
	90	91	0.142	0.404005	0.05	30	39	39	0	0	1	-360	360	7.8640	-5.8071	-7.7558	1.2832;
	91	93	0.017	0.0420005	0.006	30	39	39	0	0	1	-360	360	-10.8257	-1.2832	10.8464	0.7512;
	94	101	0.0036	0.0199002	0.004	637.85	829.2	829.2	0	0	1	-360	360	-111.5768	1.0363	112.2534	2.4372;
	96	97	0.0001	0.00180002	0.017	1895.76	2464.49	2464.49	0	0	1	-360	360	0.0000	0.0000	0.0000	0.0000;
	97	98	0	0.0271003	0	1894.4	2462.73	2462.72	0	0	1	-360	360	77.6962	41.6649	-77.6962	-38.7154;
	97	100	0.0022	0.291503	0	96.42	125.35	125.35	0	0	1	-360	360	22.9407	9.6022	-22.9217	-7.0777;
	97	245	0	0.616307	0	76.05	98.86	98.87	0	0	1	-360	360	-3.8236	0.0280	3.8236	0.0982;
	98	99	0	0.0339004	0	320.7	416.91	416.91	0	0	1	-360	360	-122.7750	-28.6878	122.7750	36.4713;
	98	100	0	0.0582007	0	1255.96	1632.75	1632.75	0	0	1	-360	360	77.9922	26.7822	-77.9922	-21.0661;
	99	245	0	-0.0696992	0	73.75	95.88	95.88	0	0	1	-360	360	3.8236	0.0839	-3.8236	-0.0982;
	102	103	0.036	0.107601	0.117	321.54	418	418	0	0	1	-360	360	-2.5512	-5.6398	2.5553	-2.9536;
	102	104	0.0476	0.141402	0.149	221.65	288.14	288.14	0	0	1	-360	360	0.0000	0.0000	0.0000	0.0000;
	104	105	0.0006	0.0197002	0	696.33	905.23	905.23	0	0	1	-360	360	0.0000	0.0000	0.0000	0.0000;
	106	107	0.0059	0.0577007	0.095	195.24	253.82	253.81	0	0	1	-360	360	-228.5869	-11.6205	232.2286	38.9156;
	106	113	0.0049	0.0336004	0.208	221.17	287.52	287.52	0	0	1	-360	360	-170.9612	-135.7407	173.5825	134.9626;
	106	147	0.0059	0.0577007	0.095	233.97	304.16	304.16	0	0	1	-360	360	-227.6495	-11.9354	231.2618	38.9422;
	107	109	0.0078	0.0773009	0.126	464.96	604.45	604.45	0	0	1	-360	360	-343.0914	29.8722	353.3572	59.9838;
	107	112	0.0026	0.0193002	0.03	359.5	467.35	467.35	0	0	1	-360	360	110.8628	-68.7878	-110.3785	69.6392;
	108	109	0.0076	0.0752009	0.122	378.09	491.51	491.52	0	0	1	-360	360	-347.6903	19.2875	358.0874	72.1825;
	108	112	0.0021	0.0186002	0.03	515.04	669.55	669.55	0	0	1	-360	360	123.3426	-111.3867	-122.6965	114.3899;
	109	111	0.0016	0.0164002	0.026	358.15	465.59	465.6	0	0	1	-360	360	353.9166	127.3116	-351.6063	-106.1192;
	109	130	0.0017	0.0165002	0.026	262.02	340.62	340.63	0	0	1	-360	360	161.7316	52.9357	-161.2279	-50.5705;
	109	146	0.0079	0.0793009	0.127	512.99	666.89	666.89	0	0	1	-360	360	362.4730	102.7226	-350.9478	1.3699;
	109	147	0.0078	0.0784009	0.125	412.96	536.85	536.85	0	0	1	-360	360	349.1347	59.6941	-339.1081	29.2994;
	112	116	0.0017	0.0117001	0.289	691.78	899.32	899.31	0	0	1	-360	360	-433.3842	-564.2733	442.4142	597.5073;
	112	147	0.0026	0.0193002	0.03	313.8	407.94	407.94	0	0	1	-360	360	-107.3832	68.9360	107.8463	-68.2416;
	112	148	0.0021	0.0186002	0.03	184.72	240.13	240.14	0	0	1	-360	360	99.6622	133.0121	-99.0266	-130.0776;
	113	114	0.0043	0.0293003	0.18	228.68	297.28	297.28	0	0	1	-360	360	-95.7562	-21.1152	96.1758	6.6238;
	113	163	0.0039	0.0381004	0.258	165.71	215.43	215.42	0	0	1	-360	360	-77.8264	-113.8474	78.4941	94.6048;
	114	115	0.0091	0.0623007	0.385	278.05	361.47	361.46	0	0	1	-360	360	-246.6741	-43.6257	252.4281	43.6475;
	115	116	0.0125	0.089001	0.54001	369.45	480.29	480.29	0	0	1	-360	360	79.9129	-39.0860	-79.1571	-13.5616;
	115	131	0.0056	0.0390004	0.95301	672.87	874.73	874.73	0	0	1	-360	360	-383.1853	-21.3247	390.8939	-29.2162;
	116	119	0.0015	0.0114001	0.284	519.3	675.08	675.09	0	0	1	-360	360	40.2096	-22.0715	-40.1864	-8.3169;
	116	160	0.0005	0.00340004	0.021	1044.25	1357.53	1357.53	0	0	1	-360	360	193.3581	-216.0442	-192.9698	216.4119;
	116	165	0.0007	0.0151002	0.126	1651.31	2146.71	2146.7	0	0	1	-360	360	-427.8632	-157.5344	429.2020	172.5037;
	116	167	0.0005	0.00340004	0.021	737.11	958.25	958.24	0	0	1	-360	360	-176.3179	-251.4597	176.7536	252.1426;
	117	160	0.0004	0.0202002	0	1489.09	1935.82	1935.82	0	0	1	-360	360	-770.8395	113.2763	773.0349	-2.4083;
	117	167	0.0004	0.0202002	0	1766.78	2296.81	2296.81	0	0	1	-360	360	-834.7153	108.6781	837.2779	20.7345;
	118	151	0.0562	0.224803	0.081	139.29	181.08	181.08	0	0	1	-360	360	6.9025	-14.1349	-6.8211	6.0437;
	119	120	0.012	0.083601	0.123	139.41	181.23	181.23	0	0	1	-360	360	-118.6431	-0.2730	120.2168	-2.1702;
	119	121	0.0152	0.113201	0.68401	185.06	240.58	240.58	0	0	1	-360	360	-93.9708	-0.5427	95.4036	-61.0030;
	119	124	0.0468	0.336904	0.51901	90.55	117.71	117.72	0	0	1	-360	360	-47.7255	-10.1785	48.8528	-36.3500;
	119	125	0.043	0.303103	0.46301	106.73	138.75	138.75	0	0	1	-360	360	-71.8907	-12.4335	74.0175	-23.1649;
	119	126	0.0489	0.349204	0.53801	313.25	407.23	407.23	0	0	1	-360	360	-80.4864	-10.9670	83.5763	-25.7299;
	119	161	0.0013	0.0089001	0.119	260.68	338.88	338.88	0	0	1	-360	360	93.5075	-63.6131	-93.3623	51.7508;
	120	125	0.0291	0.226703	0.342	89.84	116.79	116.79	0	0	1	-360	360	-54.3469	-9.8917	55.1470	-21.7094;
	121	122	0.006	0.0570006	0.76701	381.09	495.41	495.42	0	0	1	-360	360	-289.6635	-33.1713	294.5293	-2.0689;
	122	124	0.0075	0.0773009	0.119	187.1	243.23	243.23	0	0	1	-360	360	141.7466	26.0208	-140.2902	-23.6150;
	122	128	0.0127	0.090901	0.135	133.01	172.91	172.91	0	0	1	-360	360	-19.6677	-37.7922	19.8208	23.7714;
	124	125	0.0085	0.0588007	0.087	239.45	311.28	311.29	0	0	1	-360	360	-88.2576	-56.3366	89.1229	53.0216;
	124	128	0.0218	0.151102	0.223	156.93	204.01	204.01	0	0	1	-360	360	-85.0149	-33.5208	86.6485	20.5397;
	125	126	0.0073	0.0504006	0.074	269.74	350.67	350.66	0	0	1	-360	360	-134.4946	20.5551	135.7255	-20.2598;
	127	157	0.0523	0.152602	0.074	169.08	219.8	219.8	0	0	1	-360	360	109.8698	67.0822	-102.4464	-53.2890;
	127	158	0.1371	0.391904	0.076	96.94	126.03	126.02	0	0	1	-360	360	52.7893	10.7410	-49.3687	-9.3252;
	131	132	0.0137	0.0957011	0.141	301.09	391.42	391.42	0	0	1	-360	360	-26.6134	9.7059	26.7384	-24.3629;
	132	140	0.0055	0.0288003	0.19	233.97	304.16	304.16	0	0	1	-360	360	102.9702	-3.3991	-102.4322	-14.3309;
	133	135	0.1746	0.316104	0.04	116.33	151.23	151.23	0	0	1	-360	360	-19.1224	48.3533	23.5722	-44.4579;
	133	162	0.0804	0.305404	0.045	189.53	246.39	246.39	0	0	1	-360	360	-47.3902	44.0940	50.4832	-37.1376;
	134	140	0.011	0.0568006	0.388	275.91	358.68	358.68	0	0	1	-360	360	-68.7068	-38.2946	69.2427	0.1078;
	136	138	0.0008	0.00980011	0.069	1236.3	1607.19	1607.19	0	0	1	-360	360	115.8827	-7.6266	-115.7239	4.8972;
	137	139	0.0066	0.0448005	0.277	190.95	248.24	248.24	0	0	1	-360	360	92.4223	5.8702	-91.6390	-20.7619;
	141	143	0.0024	0.0326004	0.236	813.08	1057.01	1057	0	0	1	-360	360	468.9570	16.4423	-463.5613	33.8800;
	141	144	0.0018	0.0245003	1.66202	880.76	1144.99	1144.99	0	0	1	-360	360	-548.6001	-38.9294	554.1518	-50.1164;
	142	143	0.0044	0.0514006	3.59704	631.95	821.54	821.54	0	0	1	-360	360	0.0000	0.0000	0.0000	0.0000;
	144	145	0.0002	0.0123001	0	869.61	1130.49	1130.49	0	0	1	-360	360	-554.1518	50.1164	554.7715	-12.0038;
	146	148	0.0018	0.0178002	0.029	413.69	537.8	537.8	0	0	1	-360	360	88.1513	-85.2294	-87.8352	85.8658;
	151	152	0.0669	0.484306	0.063	92.29	119.97	119.98	0	0	1	-360	360	14.9749	2.6513	-14.8105	-7.8998;
	151	153	0.0558	0.221003	0.031	57.58	74.86	74.85	0	0	1	-360	360	-32.9999	-8.6951	33.6004	7.6794;
	152	153	0.0807	0.333104	0.049	190.09	247.11	247.12	0	0	1	-360	360	-43.1162	-10.4058	44.6901	11.7137;
...
];

%%-----  OPF Data  -----%%
%% generator cost data
%	1	startup	shutdown	n	x1	y1	...	xn	yn
%	2	startup	shutdown	n	c(n-1)	...	c0
mpc.gencost = [
	2	0	0	3	0.01	40	0;
	2	0	0	3	0.01	40	0;
	2	0	0	3	0.01	40	0;
	2	0	0	3	0.01	40	0;
	2	0	0	3	0.01	40	0;
	2	0	0	3	0.0266666667	20	0;
	2	0	0	3	0.064516129	20	0;
	2	0	0	3	0.0344827586	20	0;
	2	0	0	3	0.147058824	20	0;
	2	0	0	3	0.0854700855	20	0;
	2	0	0	3	0.00518134715	20	0;
	2	0	0	3	0.0416666667	20	0;
	2	0	0	3	0.01	40	0;
	2	0	0	3	0.01	40	0;
	2	0	0	3	0.0355871886	20	0;
	2	0	0	3	0.0143678161	20	0;
	2	0	0	3	0.119047619	20	0;
	2	0	0	3	0.0460829493	20	0;
	2	0	0	3	0.0970873786	20	0;
	2	0	0	3	0.0268817204	20	0;
	2	0	0	3	0.0462962963	20	0;
	2	0	0	3	0.01	40	0;
	2	0	0	3	0.0487804878	20	0;
	2	0	0	3	0.01	40	0;
	2	0	0	3	0.0438596491	20	0;
	2	0	0	3	0.119047619	20	0;
	2	0	0	3	0.05	20	0;
	2	0	0	3	0.00833333333	20	0;
	2	0	0	3	0.00833333333	20	0;
	2	0	0	3	0.0210526316	20	0;
	2	0	0	3	0.00506842372	20	0;
	2	0	0	3	0.0235849057	20	0;
	2	0	0	3	0.0367647059	20	0;
	2	0	0	3	0.1	20	0;
	2	0	0	3	0.0222222222	20	0;
	2	0	0	3	0.04	20	0;
	2	0	0	3	0.0330033003	20	0;
	2	0	0	3	0.0289855072	20	0;
	2	0	0	3	0.0333333333	20	0;
	2	0	0	3	0.0166666667	20	0;
	2	0	0	3	0.04	20	0;
	2	0	0	3	0.0181818182	20	0;
	2	0	0	3	0.0173783084	20	0;
	2	0	0	3	0.0588235294	20	0;
	2	0	0	3	0.119047619	20	0;
	2	0	0	3	0.0214132762	20	0;
	2	0	0	3	0.0160513644	20	0;
	2	0	0	3	0.00826446281	20	0;
	2	0	0	3	0.0427350427	20	0;
	2	0	0	3	0.0268817204	20	0;
	2	0	0	3	0.0303030303	20	0;
	2	0	0	3	0.0540540541	20	0;
	2	0	0	3	0.0243902439	20	0;
	2	0	0	3	0.02	20	0;
	2	0	0	3	0.27027027	20	0;
	2	0	0	3	0.01	40	0;
	2	0	0	3	0.222222222	20	0;
	2	0	0	3	0.0606060606	20	0;
	2	0	0	3	0.025	20	0;
	2	0	0	3	0.025	20	0;
	2	0	0	3	0.0862068966	20	0;
	2	0	0	3	0.00773993808	20	0;
	2	0	0	3	0.0142857143	20	0;
	2	0	0	3	0.0180831826	20	0;
	2	0	0	3	0.01	40	0;
	2	0	0	3	0.01	40	0;
];
